lib/case57.m
function [baseMVA, bus, gen, branch, area, gencost] = case57
%CASE57    Power flow data for IEEE 57 bus test case.
%   Please see 'help caseformat' for details on the case file format.
%
%   MATPOWER
%   $Id$

% 09/25/93 UW ARCHIVE           100.0  1961 W IEEE 57 Bus Test Case

baseMVA = 100.0; 

%bus type  Pd      Qd       Gs      Bs    area  Vm      Va      baseKV zone   Vmax   Vmin
bus = [
   1  3     55.00    17.00    0.000    0.000   1   1.04000    0.000     0.00  1    1.06000  0.94000
   2  2      3.00    88.00    0.000    0.000   1   1.01000   -1.180     0.00  1    1.06000  0.94000
   3  2     41.00    21.00    0.000    0.000   1   0.98500   -5.970     0.00  1    1.06000  0.94000
   4  1      0.00     0.00    0.000    0.000   1   0.98100   -7.320     0.00  1    1.06000  0.94000
   5  1     13.00     4.00    0.000    0.000   1   0.97600   -8.520     0.00  1    1.06000  0.94000
   6  2     75.00     2.00    0.000    0.000   1   0.98000   -8.650     0.00  1    1.06000  0.94000
   7  1      0.00     0.00    0.000    0.000   1   0.98400   -7.580     0.00  1    1.06000  0.94000
   8  2    150.00    22.00    0.000    0.000   1   1.00500   -4.450     0.00  1    1.06000  0.94000
   9  2    121.00    26.00    0.000    0.000   1   0.98000   -9.560     0.00  1    1.06000  0.94000
  10  1      5.00     2.00    0.000    0.000   1   0.98600  -11.430     0.00  1    1.06000  0.94000
  11  1      0.00     0.00    0.000    0.000   1   0.97400  -10.170     0.00  1    1.06000  0.94000
  12  2    377.00    24.00    0.000    0.000   1   1.01500  -10.460     0.00  1    1.06000  0.94000
  13  1     18.00     2.30    0.000    0.000   1   0.97900   -9.790     0.00  1    1.06000  0.94000
  14  1     10.50     5.30    0.000    0.000   1   0.97000   -9.330     0.00  1    1.06000  0.94000
  15  1     22.00     5.00    0.000    0.000   1   0.98800   -7.180     0.00  1    1.06000  0.94000
  16  1     43.00     3.00    0.000    0.000   1   1.01300   -8.850     0.00  1    1.06000  0.94000
  17  1     42.00     8.00    0.000    0.000   1   1.01700   -5.390     0.00  1    1.06000  0.94000
  18  1     27.20     9.80    0.000   10.000   1   1.00100  -11.710     0.00  1    1.06000  0.94000
  19  1      3.30     0.60    0.000    0.000   1   0.97000  -13.200     0.00  1    1.06000  0.94000
  20  1      2.30     1.00    0.000    0.000   1   0.96400  -13.410     0.00  1    1.06000  0.94000
  21  1      0.00     0.00    0.000    0.000   1   1.00800  -12.890     0.00  1    1.06000  0.94000
  22  1      0.00     0.00    0.000    0.000   1   1.01000  -12.840     0.00  1    1.06000  0.94000
  23  1      6.30     2.10    0.000    0.000   1   1.00800  -12.910     0.00  1    1.06000  0.94000
  24  1      0.00     0.00    0.000    0.000   1   0.99900  -13.250     0.00  1    1.06000  0.94000
  25  1      6.30     3.20    0.000    5.900   1   0.98200  -18.130     0.00  1    1.06000  0.94000
  26  1      0.00     0.00    0.000    0.000   1   0.95900  -12.950     0.00  1    1.06000  0.94000
  27  1      9.30     0.50    0.000    0.000   1   0.98200  -11.480     0.00  1    1.06000  0.94000
  28  1      4.60     2.30    0.000    0.000   1   0.99700  -10.450     0.00  1    1.06000  0.94000
  29  1     17.00     2.60    0.000    0.000   1   1.01000   -9.750     0.00  1    1.06000  0.94000
  30  1      3.60     1.80    0.000    0.000   1   0.96200  -18.680     0.00  1    1.06000  0.94000
  31  1      5.80     2.90    0.000    0.000   1   0.93600  -19.340     0.00  1    1.06000  0.94000
  32  1      1.60     0.80    0.000    0.000   1   0.94900  -18.460     0.00  1    1.06000  0.94000
  33  1      3.80     1.90    0.000    0.000   1   0.94700  -18.500     0.00  1    1.06000  0.94000
  34  1      0.00     0.00    0.000    0.000   1   0.95900  -14.100     0.00  1    1.06000  0.94000
  35  1      6.00     3.00    0.000    0.000   1   0.96600  -13.860     0.00  1    1.06000  0.94000
  36  1      0.00     0.00    0.000    0.000   1   0.97600  -13.590     0.00  1    1.06000  0.94000
  37  1      0.00     0.00    0.000    0.000   1   0.98500  -13.410     0.00  1    1.06000  0.94000
  38  1     14.00     7.00    0.000    0.000   1   1.01300  -12.710     0.00  1    1.06000  0.94000
  39  1      0.00     0.00    0.000    0.000   1   0.98300  -13.460     0.00  1    1.06000  0.94000
  40  1      0.00     0.00    0.000    0.000   1   0.97300  -13.620     0.00  1    1.06000  0.94000
  41  1      6.30     3.00    0.000    0.000   1   0.99600  -14.050     0.00  1    1.06000  0.94000
  42  1      7.10     4.40    0.000    0.000   1   0.96600  -15.500     0.00  1    1.06000  0.94000
  43  1      2.00     1.00    0.000    0.000   1   1.01000  -11.330     0.00  1    1.06000  0.94000
  44  1     12.00     1.80    0.000    0.000   1   1.01700  -11.860     0.00  1    1.06000  0.94000
  45  1      0.00     0.00    0.000    0.000   1   1.03600   -9.250     0.00  1    1.06000  0.94000
  46  1      0.00     0.00    0.000    0.000   1   1.05000  -11.890     0.00  1    1.06000  0.94000
  47  1     29.70    11.60    0.000    0.000   1   1.03300  -12.490     0.00  1    1.06000  0.94000
  48  1      0.00     0.00    0.000    0.000   1   1.02700  -12.590     0.00  1    1.06000  0.94000
  49  1     18.00     8.50    0.000    0.000   1   1.03600  -12.920     0.00  1    1.06000  0.94000
  50  1     21.00    10.50    0.000    0.000   1   1.02300  -13.390     0.00  1    1.06000  0.94000
  51  1     18.00     5.30    0.000    0.000   1   1.05200  -12.520     0.00  1    1.06000  0.94000
  52  1      4.90     2.20    0.000    0.000   1   0.98000  -11.470     0.00  1    1.06000  0.94000
  53  1     20.00    10.00    0.000    6.300   1   0.97100  -12.230     0.00  1    1.06000  0.94000
  54  1      4.10     1.40    0.000    0.000   1   0.99600  -11.690     0.00  1    1.06000  0.94000
  55  1      6.80     3.40    0.000    0.000   1   1.03100  -10.780     0.00  1    1.06000  0.94000
  56  1      7.60     2.20    0.000    0.000   1   0.96800  -16.040     0.00  1    1.06000  0.94000
  57  1      6.70     2.00    0.000    0.000   1   0.96500  -16.560     0.00  1    1.06000  0.94000
];     

%bus  Pg       Qg      Qmax    Qmin   Vsp      base  status   Pmax    Pmin
gen = [
   1   478.90   -16.10   300.00  -200.00  1.04000   100.00    1      575.88     0.00
   2     0.00    -0.80    50.00   -17.00  1.01000   100.00    1      100.00     0.00
   3    40.00    -1.00    60.00   -10.00  0.98500   100.00    1      140.00     0.00
   6     0.00     0.80    25.00    -8.00  0.98000   100.00    1      100.00     0.00
   8   450.00    62.10   200.00  -140.00  1.00500   100.00    1      550.00     0.00
   9     0.00     2.20     9.00    -3.00  0.98000   100.00    1      100.00     0.00
  12   310.00   128.50   155.00  -150.00  1.01500   100.00    1      410.00     0.00
];	

%fbus tbus      r     x     b       ratea   rateb   ratec ratio   angle  statu
branch = [
   1    2   0.00830  0.02800  0.12900  9900.00     0.00      0.00  0.00000    0.000     1
   2    3   0.02980  0.08500  0.08180  9900.00     0.00      0.00  0.00000    0.000     1
   3    4   0.01120  0.03660  0.03800  9900.00     0.00      0.00  0.00000    0.000     1
   4    5   0.06250  0.13200  0.02580  9900.00     0.00      0.00  0.00000    0.000     1
   4    6   0.04300  0.14800  0.03480  9900.00     0.00      0.00  0.00000    0.000     1
   6    7   0.02000  0.10200  0.02760  9900.00     0.00      0.00  0.00000    0.000     1
   6    8   0.03390  0.17300  0.04700  9900.00     0.00      0.00  0.00000    0.000     1
   8    9   0.00990  0.05050  0.05480  9900.00     0.00      0.00  0.00000    0.000     1
   9   10   0.03690  0.16790  0.04400  9900.00     0.00      0.00  0.00000    0.000     1
   9   11   0.02580  0.08480  0.02180  9900.00     0.00      0.00  0.00000    0.000     1
   9   12   0.06480  0.29500  0.07720  9900.00     0.00      0.00  0.00000    0.000     1
   9   13   0.04810  0.15800  0.04060  9900.00     0.00      0.00  0.00000    0.000     1
  13   14   0.01320  0.04340  0.01100  9900.00     0.00      0.00  0.00000    0.000     1
  13   15   0.02690  0.08690  0.02300  9900.00     0.00      0.00  0.00000    0.000     1
   1   15   0.01780  0.09100  0.09880  9900.00     0.00      0.00  0.00000    0.000     1
   1   16   0.04540  0.20600  0.05460  9900.00     0.00      0.00  0.00000    0.000     1
   1   17   0.02380  0.10800  0.02860  9900.00     0.00      0.00  0.00000    0.000     1
   3   15   0.01620  0.05300  0.05440  9900.00     0.00      0.00  0.00000    0.000     1
   4   18   0.00000  0.55500  0.00000  9900.00     0.00      0.00  0.97000    0.000     1
   4   18   0.00000  0.43000  0.00000  9900.00     0.00      0.00  0.97800    0.000     1
   5    6   0.03020  0.06410  0.01240  9900.00     0.00      0.00  0.00000    0.000     1
   7    8   0.01390  0.07120  0.01940  9900.00     0.00      0.00  0.00000    0.000     1
  10   12   0.02770  0.12620  0.03280  9900.00     0.00      0.00  0.00000    0.000     1
  11   13   0.02230  0.07320  0.01880  9900.00     0.00      0.00  0.00000    0.000     1
  12   13   0.01780  0.05800  0.06040  9900.00     0.00      0.00  0.00000    0.000     1
  12   16   0.01800  0.08130  0.02160  9900.00     0.00      0.00  0.00000    0.000     1
  12   17   0.03970  0.17900  0.04760  9900.00     0.00      0.00  0.00000    0.000     1
  14   15   0.01710  0.05470  0.01480  9900.00     0.00      0.00  0.00000    0.000     1
  18   19   0.46100  0.68500  0.00000  9900.00     0.00      0.00  0.00000    0.000     1
  19   20   0.28300  0.43400  0.00000  9900.00     0.00      0.00  0.00000    0.000     1
  21   20   0.00000  0.77670  0.00000  9900.00     0.00      0.00  1.04300    0.000     1
  21   22   0.07360  0.11700  0.00000  9900.00     0.00      0.00  0.00000    0.000     1
  22   23   0.00990  0.01520  0.00000  9900.00     0.00      0.00  0.00000    0.000     1
  23   24   0.16600  0.25600  0.00840  9900.00     0.00      0.00  0.00000    0.000     1
  24   25   0.00000  1.18200  0.00000  9900.00     0.00      0.00  1.00000    0.000     1
  24   25   0.00000  1.23000  0.00000  9900.00     0.00      0.00  1.00000    0.000     1
  24   26   0.00000  0.04730  0.00000  9900.00     0.00      0.00  1.04300    0.000     1
  26   27   0.16500  0.25400  0.00000  9900.00     0.00      0.00  0.00000    0.000     1
  27   28   0.06180  0.09540  0.00000  9900.00     0.00      0.00  0.00000    0.000     1
  28   29   0.04180  0.05870  0.00000  9900.00     0.00      0.00  0.00000    0.000     1
   7   29   0.00000  0.06480  0.00000  9900.00     0.00      0.00  0.96700    0.000     1
  25   30   0.13500  0.20200  0.00000  9900.00     0.00      0.00  0.00000    0.000     1
  30   31   0.32600  0.49700  0.00000  9900.00     0.00      0.00  0.00000    0.000     1
  31   32   0.50700  0.75500  0.00000  9900.00     0.00      0.00  0.00000    0.000     1
  32   33   0.03920  0.03600  0.00000  9900.00     0.00      0.00  0.00000    0.000     1
  34   32   0.00000  0.95300  0.00000  9900.00     0.00      0.00  0.97500    0.000     1
  34   35   0.05200  0.07800  0.00320  9900.00     0.00      0.00  0.00000    0.000     1
  35   36   0.04300  0.05370  0.00160  9900.00     0.00      0.00  0.00000    0.000     1
  36   37   0.02900  0.03660  0.00000  9900.00     0.00      0.00  0.00000    0.000     1
  37   38   0.06510  0.10090  0.00200  9900.00     0.00      0.00  0.00000    0.000     1
  37   39   0.02390  0.03790  0.00000  9900.00     0.00      0.00  0.00000    0.000     1
  36   40   0.03000  0.04660  0.00000  9900.00     0.00      0.00  0.00000    0.000     1
  22   38   0.01920  0.02950  0.00000  9900.00     0.00      0.00  0.00000    0.000     1
  11   41   0.00000  0.74900  0.00000  9900.00     0.00      0.00  0.95500    0.000     1
  41   42   0.20700  0.35200  0.00000  9900.00     0.00      0.00  0.00000    0.000     1
  41   43   0.00000  0.41200  0.00000  9900.00     0.00      0.00  0.00000    0.000     1
  38   44   0.02890  0.05850  0.00200  9900.00     0.00      0.00  0.00000    0.000     1
  15   45   0.00000  0.10420  0.00000  9900.00     0.00      0.00  0.95500    0.000     1
  14   46   0.00000  0.07350  0.00000  9900.00     0.00      0.00  0.90000    0.000     1
  46   47   0.02300  0.06800  0.00320  9900.00     0.00      0.00  0.00000    0.000     1
  47   48   0.01820  0.02330  0.00000  9900.00     0.00      0.00  0.00000    0.000     1
  48   49   0.08340  0.12900  0.00480  9900.00     0.00      0.00  0.00000    0.000     1
  49   50   0.08010  0.12800  0.00000  9900.00     0.00      0.00  0.00000    0.000     1
  50   51   0.13860  0.22000  0.00000  9900.00     0.00      0.00  0.00000    0.000     1
  10   51   0.00000  0.07120  0.00000  9900.00     0.00      0.00  0.93000    0.000     1
  13   49   0.00000  0.19100  0.00000  9900.00     0.00      0.00  0.89500    0.000     1
  29   52   0.14420  0.18700  0.00000  9900.00     0.00      0.00  0.00000    0.000     1
  52   53   0.07620  0.09840  0.00000  9900.00     0.00      0.00  0.00000    0.000     1
  53   54   0.18780  0.23200  0.00000  9900.00     0.00      0.00  0.00000    0.000     1
  54   55   0.17320  0.22650  0.00000  9900.00     0.00      0.00  0.00000    0.000     1
  11   43   0.00000  0.15300  0.00000  9900.00     0.00      0.00  0.95800    0.000     1
  44   45   0.06240  0.12420  0.00400  9900.00     0.00      0.00  0.00000    0.000     1
  40   56   0.00000  1.19500  0.00000  9900.00     0.00      0.00  0.95800    0.000     1
  56   41   0.55300  0.54900  0.00000  9900.00     0.00      0.00  0.00000    0.000     1
  56   42   0.21250  0.35400  0.00000  9900.00     0.00      0.00  0.00000    0.000     1
  39   57   0.00000  1.35500  0.00000  9900.00     0.00      0.00  0.98000    0.000     1
  57   56   0.17400  0.26000  0.00000  9900.00     0.00      0.00  0.00000    0.000     1
  38   49   0.11500  0.17700  0.00600  9900.00     0.00      0.00  0.00000    0.000     1
  38   48   0.03120  0.04820  0.00000  9900.00     0.00      0.00  0.00000    0.000     1
   9   55   0.00000  0.12050  0.00000  9900.00     0.00      0.00  0.94000    0.000     1
];	

area = [
   1      1
];	

gencost = [
   2     0.00        0.00         3     0.01  0.30000     0.20
   2     0.00        0.00         3     0.01  0.30000     0.20
   2     0.00        0.00         3     0.01  0.30000     0.20
   2     0.00        0.00         3     0.01  0.30000     0.20
   2     0.00        0.00         3     0.01  0.30000     0.20
   2     0.00        0.00         3     0.01  0.30000     0.20
   2     0.00        0.00         3     0.01  0.30000     0.20
];	

return;	
